/*--------------------------------*- C++ -*----------------------------------*\
| =========                 |                                                 |
| \\      /  F ield         | OpenFOAM: The Open Source CFD Toolbox           |
|  \\    /   O peration     | Version:  2312                                  |
|   \\  /    A nd           | Website:  www.openfoam.com                      |
|    \\/     M anipulation  |                                                 |
\*---------------------------------------------------------------------------*/
FoamFile
{
    version     2.0;
    format      ascii;
    arch        "LSB;label=32;scalar=64";
    class       polyBoundaryMesh;
    location    "constant/polyMesh";
    object      boundary;
}
// * * * * * * * * * * * * * * * * * * * * * * * * * * * * * * * * * * * * * //

4
(
    hotWall
    {
        type            wall;
        inGroups        1(wall);
        nFaces          30;
        startFace       1740;
    }
    coldWall
    {
        type            wall;
        inGroups        1(wall);
        nFaces          30;
        startFace       1770;
    }
    walls
    {
        type            wall;
        inGroups        1(wall);
        nFaces          60;
        startFace       1800;
    }
    frontAndBack
    {
        type            empty;
        inGroups        1(empty);
        nFaces          1800;
        startFace       1860;
    }
)

// ************************************************************************* //
