/*--------------------------------*- C++ -*----------------------------------*\
| =========                 |                                                 |
| \\      /  F ield         | OpenFOAM IDE — generated dictionary             |
|  \\    /   O peration     |                                                 |
|   \\  /    A nd           |                                                 |
|    \\/     M anipulation  |                                                 |
\*---------------------------------------------------------------------------*/

FoamFile
{
    version         2.0;
    format          ascii;
    class           dictionary;
    location        "constant";
    object          thermophysicalProperties;
}

thermoType
{
    type            heRhoThermo;
    mixture         pureMixture;
    transport       const;
    thermo          hConst;
    equationOfState Boussinesq;
    specie          specie;
    energy          sensibleEnthalpy;
}
mixture
{
    specie
    {
        molWeight       28.9;
    }
    equationOfState
    {
        rho0            1;
        T0              293;
        beta            0.003;
    }
    thermodynamics
    {
        Cp              1005;
        Hf              0;
    }
    transport
    {
        mu              0.01;
        Pr              402;
    }
}

// ************************************************************************* //
