/*--------------------------------*- C++ -*----------------------------------*\
| =========                 |                                                 |
| \\      /  F ield         | OpenFOAM IDE — generated dictionary             |
|  \\    /   O peration     |                                                 |
|   \\  /    A nd           |                                                 |
|    \\/     M anipulation  |                                                 |
\*---------------------------------------------------------------------------*/

FoamFile
{
    version         2.0;
    format          ascii;
    class           volScalarField;
    location        "0";
    object          p_rgh;
}

dimensions      [1 -1 -2 0 0 0 0];
internalField   uniform 0;
boundaryField
{
    hotWall
    {
        type            fixedFluxPressure;
        value           uniform 0;
    }
    coldWall
    {
        type            fixedFluxPressure;
        value           uniform 0;
    }
    walls
    {
        type            fixedFluxPressure;
        value           uniform 0;
    }
    frontAndBack
    {
        type            empty;
    }
}

// ************************************************************************* //
