/*--------------------------------*- C++ -*----------------------------------*\
| =========                 |                                                 |
| \\      /  F ield         | OpenFOAM IDE — generated dictionary             |
|  \\    /   O peration     |                                                 |
|   \\  /    A nd           |                                                 |
|    \\/     M anipulation  |                                                 |
\*---------------------------------------------------------------------------*/

FoamFile
{
    version         2.0;
    format          ascii;
    class           volScalarField;
    location        "0";
    object          T;
}

dimensions      [0 0 0 1 0 0 0];
internalField   uniform 300;
boundaryField
{
    hotWall
    {
        type            fixedValue;
        value           uniform 100;
    }
    coldWall
    {
        type            fixedValue;
        value           uniform 293;
    }
    walls
    {
        type            zeroGradient;
    }
    frontAndBack
    {
        type            empty;
    }
}

// ************************************************************************* //
